           6
  -1931.31182074607     
  Ti      2.135639      2.135639      0.000000
  Ti      0.000000      0.000000      1.373921
  O       2.971437      2.971437      1.373921
  O       0.835798      3.435480      0.000000
  O       3.435480      0.835798      0.000000
  O       1.299841      1.299841      1.373921
           6
  -1931.31184538621     
  Ti      2.135639      2.135639      0.000000
  Ti      0.000000      0.000000      1.373921
  O       2.971437      2.971437      1.373921
  O       0.835798      3.435480      0.000000
  O       3.435480      0.835798      0.000000
  O       1.299841      1.299841      1.373921
           6
  -1931.31186734283     
  Ti      2.135639      2.135639      0.000000
  Ti      0.000000      0.000000      1.373921
  O       2.971437      2.971437      1.373921
  O       0.835798      3.435480      0.000000
  O       3.435480      0.835798      0.000000
  O       1.299841      1.299841      1.373921
           6
  -1931.31188690504     
  Ti      2.135639      2.135639      0.000000
  Ti      0.000000      0.000000      1.373921
  O       2.971437      2.971437      1.373921
  O       0.835798      3.435480      0.000000
  O       3.435480      0.835798      0.000000
  O       1.299841      1.299841      1.373921
           6
  -1931.31190433092     
  Ti      2.135639      2.135639      0.000000
  Ti      0.000000      0.000000      1.373921
  O       2.971437      2.971437      1.373921
  O       0.835798      3.435480      0.000000
  O       3.435480      0.835798      0.000000
  O       1.299841      1.299841      1.373921
           6
  -1931.31191985089     
  Ti      2.135639      2.135639      0.000000
  Ti      0.000000      0.000000      1.373921
  O       2.971437      2.971437      1.373921
  O       0.835798      3.435480      0.000000
  O       3.435480      0.835798      0.000000
  O       1.299841      1.299841      1.373921
           6
  -1931.31193367063     
  Ti      2.135639      2.135639      0.000000
  Ti      0.000000      0.000000      1.373921
  O       2.971437      2.971437      1.373921
  O       0.835798      3.435480      0.000000
  O       3.435480      0.835798      0.000000
  O       1.299841      1.299841      1.373921
           6
  -1931.58816118336     
  Ti      0.000000      0.000000      4.464117
  Ti      1.756179      0.000000      2.232059
  O       1.756179      0.000000      4.081561
  O       0.000000      0.000000      6.313620
  O       0.000000      0.000000      2.614614
  O       1.756179      0.000000      0.382556
