           6
  -1937.40423050552     
  Ti      2.267063      2.267063      0.000000
  Ti      0.000000      0.000000      1.458470
  O       3.154294      3.154294      1.458470
  O       0.887232      3.646894      0.000000
  O       3.646894      0.887232      0.000000
  O       1.379831      1.379831      1.458470
           6
  -1937.40425311399     
  Ti      2.267063      2.267063      0.000000
  Ti      0.000000      0.000000      1.458470
  O       3.154294      3.154294      1.458470
  O       0.887232      3.646894      0.000000
  O       3.646894      0.887232      0.000000
  O       1.379831      1.379831      1.458470
           6
  -1937.40427285419     
  Ti      2.267063      2.267063      0.000000
  Ti      0.000000      0.000000      1.458470
  O       3.154294      3.154294      1.458470
  O       0.887232      3.646894      0.000000
  O       3.646894      0.887232      0.000000
  O       1.379831      1.379831      1.458470
           6
  -1937.40429008729     
  Ti      2.267063      2.267063      0.000000
  Ti      0.000000      0.000000      1.458470
  O       3.154294      3.154294      1.458470
  O       0.887232      3.646894      0.000000
  O       3.646894      0.887232      0.000000
  O       1.379831      1.379831      1.458470
           6
  -1937.40430512907     
  Ti      2.267063      2.267063      0.000000
  Ti      0.000000      0.000000      1.458470
  O       3.154294      3.154294      1.458470
  O       0.887232      3.646894      0.000000
  O       3.646894      0.887232      0.000000
  O       1.379831      1.379831      1.458470
           6
  -1937.40431825566     
  Ti      2.267063      2.267063      0.000000
  Ti      0.000000      0.000000      1.458470
  O       3.154294      3.154294      1.458470
  O       0.887232      3.646894      0.000000
  O       3.646894      0.887232      0.000000
  O       1.379831      1.379831      1.458470
           6
  -1937.40432970851     
  Ti      2.267063      2.267063      0.000000
  Ti      0.000000      0.000000      1.458470
  O       3.154294      3.154294      1.458470
  O       0.887232      3.646894      0.000000
  O       3.646894      0.887232      0.000000
  O       1.379831      1.379831      1.458470
           6
  -1937.42176303478     
  Ti      0.000000      0.000000      4.738832
  Ti      1.864252      0.000000      2.369416
  O       1.864252      0.000000      4.332734
  O       0.000000      0.000000      6.702150
  O       0.000000      0.000000      2.775514
  O       1.864252      0.000000      0.406098
