           6
  -1938.51292265521     
  Ti      2.332775      2.332775      0.000000
  Ti      0.000000      0.000000      1.500744
  O       3.245723      3.245723      1.500744
  O       0.912949      3.752601      0.000000
  O       3.752601      0.912949      0.000000
  O       1.419826      1.419826      1.500744
           6
  -1938.51292556115     
  Ti      2.332775      2.332775      0.000000
  Ti      0.000000      0.000000      1.500744
  O       3.245723      3.245723      1.500744
  O       0.912949      3.752601      0.000000
  O       3.752601      0.912949      0.000000
  O       1.419826      1.419826      1.500744
           6
  -1938.51292806408     
  Ti      2.332775      2.332775      0.000000
  Ti      0.000000      0.000000      1.500744
  O       3.245723      3.245723      1.500744
  O       0.912949      3.752601      0.000000
  O       3.752601      0.912949      0.000000
  O       1.419826      1.419826      1.500744
           6
  -1938.51293021932     
  Ti      2.332775      2.332775      0.000000
  Ti      0.000000      0.000000      1.500744
  O       3.245723      3.245723      1.500744
  O       0.912949      3.752601      0.000000
  O       3.752601      0.912949      0.000000
  O       1.419826      1.419826      1.500744
           6
  -1938.51293207465     
  Ti      2.332775      2.332775      0.000000
  Ti      0.000000      0.000000      1.500744
  O       3.245723      3.245723      1.500744
  O       0.912949      3.752601      0.000000
  O       3.752601      0.912949      0.000000
  O       1.419826      1.419826      1.500744
           6
  -1938.51293367128     
  Ti      2.332775      2.332775      0.000000
  Ti      0.000000      0.000000      1.500744
  O       3.245723      3.245723      1.500744
  O       0.912949      3.752601      0.000000
  O       3.752601      0.912949      0.000000
  O       1.419826      1.419826      1.500744
           6
  -1938.51293504479     
  Ti      2.332775      2.332775      0.000000
  Ti      0.000000      0.000000      1.500744
  O       3.245723      3.245723      1.500744
  O       0.912949      3.752601      0.000000
  O       3.752601      0.912949      0.000000
  O       1.419826      1.419826      1.500744
           6
  -1938.27472225266     
  Ti      0.000000      0.000000      4.876190
  Ti      1.918288      0.000000      2.438095
  O       1.918288      0.000000      4.458321
  O       0.000000      0.000000      6.896416
  O       0.000000      0.000000      2.855963
  O       1.918288      0.000000      0.417869
