           6
  -1938.70263008123     
  Ti      2.398487      2.398487      0.000000
  Ti      0.000000      0.000000      1.543018
  O       3.337152      3.337152      1.543018
  O       0.938665      3.858308      0.000000
  O       3.858308      0.938665      0.000000
  O       1.459821      1.459821      1.543018
           6
  -1938.70260579538     
  Ti      2.398487      2.398487      0.000000
  Ti      0.000000      0.000000      1.543018
  O       3.337152      3.337152      1.543018
  O       0.938665      3.858308      0.000000
  O       3.858308      0.938665      0.000000
  O       1.459821      1.459821      1.543018
           6
  -1938.70258515643     
  Ti      2.398487      2.398487      0.000000
  Ti      0.000000      0.000000      1.543018
  O       3.337152      3.337152      1.543018
  O       0.938665      3.858308      0.000000
  O       3.858308      0.938665      0.000000
  O       1.459821      1.459821      1.543018
           6
  -1938.70256761891     
  Ti      2.398487      2.398487      0.000000
  Ti      0.000000      0.000000      1.543018
  O       3.337152      3.337152      1.543018
  O       0.938665      3.858308      0.000000
  O       3.858308      0.938665      0.000000
  O       1.459821      1.459821      1.543018
           6
  -1938.70255271879     
  Ti      2.398487      2.398487      0.000000
  Ti      0.000000      0.000000      1.543018
  O       3.337152      3.337152      1.543018
  O       0.938665      3.858308      0.000000
  O       3.858308      0.938665      0.000000
  O       1.459821      1.459821      1.543018
           6
  -1938.70254006143     
  Ti      2.398487      2.398487      0.000000
  Ti      0.000000      0.000000      1.543018
  O       3.337152      3.337152      1.543018
  O       0.938665      3.858308      0.000000
  O       3.858308      0.938665      0.000000
  O       1.459821      1.459821      1.543018
           6
  -1938.70252931112     
  Ti      2.398487      2.398487      0.000000
  Ti      0.000000      0.000000      1.543018
  O       3.337152      3.337152      1.543018
  O       0.938665      3.858308      0.000000
  O       3.858308      0.938665      0.000000
  O       1.459821      1.459821      1.543018
           6
  -1938.24694791335     
  Ti      0.000000      0.000000      5.013547
  Ti      1.972324      0.000000      2.506773
  O       1.972324      0.000000      4.583907
  O       0.000000      0.000000      7.090681
  O       0.000000      0.000000      2.936413
  O       1.972324      0.000000      0.429640
